           3
   5.9225267250534245E-025   13.372193761242125        9.7421324153769753      | kcal/mol
 O  -0.18284221312931584       -1.1575598384163288       0.77288778131352209     
 H  -0.13013715265117140      -0.90788133762303025        1.6795621621369841     
 H   -5.9664134219512763E-002 -0.37819722396064109       0.25849815654949415     
